BEGIN options
  BOUNDNAMES
END options

BEGIN dimensions
  MAXBOUND  1577
END dimensions

BEGIN period  1
  1403       0.00000000       0.00000000       0.00000000  river_0
  1417       0.00000000       0.00000000       0.00000000  river_0
  1432       0.00000000       0.00000000       0.00000000  river_0
  1446       0.00000000       0.00000000       0.00000000  river_0
  1460       0.00000000       0.00000000       0.00000000  river_0
  1474       0.00000000       0.00000000       0.00000000  river_0
  1488       0.00000000       0.00000000       0.00000000  river_0
  1502       0.00000000       0.00000000       0.00000000  river_0
  1516       0.00000000       0.00000000       0.00000000  river_0
  1530       0.00000000       0.00000000       0.00000000  river_0
  1544       0.00000000       0.00000000       0.00000000  river_0
  1558       0.00000000       0.00000000       0.00000000  river_0
  1572       0.00000000       0.00000000       0.00000000  river_0
  1586       0.00000000       0.00000000       0.00000000  river_0
  1600       0.00000000       0.00000000       0.00000000  river_0
  1614       0.00000000       0.00000000       0.00000000  river_0
  1628       0.00000000       0.00000000       0.00000000  river_0
  1642       0.00000000       0.00000000       0.00000000  river_0
  1655       0.00000000       0.00000000       0.00000000  river_0
  1668       0.00000000       0.00000000       0.00000000  river_0
  1681       0.00000000       0.00000000       0.00000000  river_0
  1694       0.00000000       0.00000000       0.00000000  river_0
  1707       0.00000000       0.00000000       0.00000000  river_0
  1719       0.00000000       0.00000000       0.00000000  river_0
  1731       0.00000000       0.00000000       0.00000000  river_0
  1743       0.00000000       0.00000000       0.00000000  river_0
  1756       0.00000000       0.00000000       0.00000000  river_0
  1769       0.00000000       0.00000000       0.00000000  river_0
  1782       0.00000000       0.00000000       0.00000000  river_0
  1795       0.00000000       0.00000000       0.00000000  river_0
  1807       0.00000000       0.00000000       0.00000000  river_0
  1819       0.00000000       0.00000000       0.00000000  river_0
  1831       0.00000000       0.00000000       0.00000000  river_0
  1843       0.00000000       0.00000000       0.00000000  river_0
  1855       0.00000000       0.00000000       0.00000000  river_0
  1867       0.00000000       0.00000000       0.00000000  river_0
  1880       0.00000000       0.00000000       0.00000000  river_0
  1892       0.00000000       0.00000000       0.00000000  river_0
  1905       0.00000000       0.00000000       0.00000000  river_0
  1918       0.00000000       0.00000000       0.00000000  river_0
  1931       0.00000000       0.00000000       0.00000000  river_0
  1944       0.00000000       0.00000000       0.00000000  river_0
  1957       0.00000000       0.00000000       0.00000000  river_0
  1970       0.00000000       0.00000000       0.00000000  river_0
  1983       0.00000000       0.00000000       0.00000000  river_0
  1998       0.00000000       0.00000000       0.00000000  river_0
  2013       0.00000000       0.00000000       0.00000000  river_0
  2028       0.00000000       0.00000000       0.00000000  river_0
  2042       0.00000000       0.00000000       0.00000000  river_0
  2056       0.00000000       0.00000000       0.00000000  river_0
  2069       0.00000000       0.00000000       0.00000000  river_0
  2082       0.00000000       0.00000000       0.00000000  river_0
  2095       0.00000000       0.00000000       0.00000000  river_0
  2108       0.00000000       0.00000000       0.00000000  river_0
  2121       0.00000000       0.00000000       0.00000000  river_0
  2134       0.00000000       0.00000000       0.00000000  river_0
  2148       0.00000000       0.00000000       0.00000000  river_0
  2162       0.00000000       0.00000000       0.00000000  river_0
  2176       0.00000000       0.00000000       0.00000000  river_0
  2190       0.00000000       0.00000000       0.00000000  river_0
  2205       0.00000000       0.00000000       0.00000000  river_0
  2220       0.00000000       0.00000000       0.00000000  river_0
  2234       0.00000000       0.00000000       0.00000000  river_0
  2249       0.00000000       0.00000000       0.00000000  river_0
  2264       0.00000000       0.00000000       0.00000000  river_0
  2279       0.00000000       0.00000000       0.00000000  river_0
  2295       0.00000000       0.00000000       0.00000000  river_0
  2311       0.00000000       0.00000000       0.00000000  river_0
  2327       0.00000000       0.00000000       0.00000000  river_0
  2343       0.00000000       0.00000000       0.00000000  river_0
  2359       0.00000000       0.00000000       0.00000000  river_0
  2375       0.00000000       0.00000000       0.00000000  river_0
  2393       0.00000000       0.00000000       0.00000000  river_0
  2410       0.00000000       0.00000000       0.00000000  river_0
  2427       0.00000000       0.00000000       0.00000000  river_0
  2444       0.00000000       0.00000000       0.00000000  river_0
  2460       0.00000000       0.00000000       0.00000000  river_0
  2476       0.00000000       0.00000000       0.00000000  river_0
  2492       0.00000000       0.00000000       0.00000000  river_0
  2509       0.00000000       0.00000000       0.00000000  river_0
  2525       0.00000000       0.00000000       0.00000000  river_0
  2541       0.00000000       0.00000000       0.00000000  river_0
  2558       0.00000000       0.00000000       0.00000000  river_0
  2575       0.00000000       0.00000000       0.00000000  river_0
  2591       0.00000000       0.00000000       0.00000000  river_0
  2607       0.00000000       0.00000000       0.00000000  river_0
  2624       0.00000000       0.00000000       0.00000000  river_0
  2641       0.00000000       0.00000000       0.00000000  river_0
  2657       0.00000000       0.00000000       0.00000000  river_0
  2673       0.00000000       0.00000000       0.00000000  river_0
  2689       0.00000000       0.00000000       0.00000000  river_0
  2706       0.00000000       0.00000000       0.00000000  river_0
  2723       0.00000000       0.00000000       0.00000000  river_0
  2740       0.00000000       0.00000000       0.00000000  river_0
  2758       0.00000000       0.00000000       0.00000000  river_0
  2776       0.00000000       0.00000000       0.00000000  river_0
  2793       0.00000000       0.00000000       0.00000000  river_0
  2810       0.00000000       0.00000000       0.00000000  river_0
  2827       0.00000000       0.00000000       0.00000000  river_0
  2844       0.00000000       0.00000000       0.00000000  river_0
  2861       0.00000000       0.00000000       0.00000000  river_0
  2879       0.00000000       0.00000000       0.00000000  river_0
  2897       0.00000000       0.00000000       0.00000000  river_0
  2915       0.00000000       0.00000000       0.00000000  river_0
  2933       0.00000000       0.00000000       0.00000000  river_0
  2951       0.00000000       0.00000000       0.00000000  river_0
  2968       0.00000000       0.00000000       0.00000000  river_0
  2985       0.00000000       0.00000000       0.00000000  river_0
  3001       0.00000000       0.00000000       0.00000000  river_0
  3016       0.00000000       0.00000000       0.00000000  river_0
  3032       0.00000000       0.00000000       0.00000000  river_0
  3049       0.00000000       0.00000000       0.00000000  river_0
  3066       0.00000000       0.00000000       0.00000000  river_0
  3083       0.00000000       0.00000000       0.00000000  river_0
  3100       0.00000000       0.00000000       0.00000000  river_0
  3117       0.00000000       0.00000000       0.00000000  river_0
  3134       0.00000000       0.00000000       0.00000000  river_0
  3151       0.00000000       0.00000000       0.00000000  river_0
  3168       0.00000000       0.00000000       0.00000000  river_0
  350735       0.00000000       0.00000000       0.00000000  river_0
  350752       0.00000000       0.00000000       0.00000000  river_0
  11105       0.00000000       0.00000000       0.00000000  river_1
  11117       0.00000000       0.00000000       0.00000000  river_1
  11129       0.00000000       0.00000000       0.00000000  river_1
  11141       0.00000000       0.00000000       0.00000000  river_1
  11153       0.00000000       0.00000000       0.00000000  river_1
  11166       0.00000000       0.00000000       0.00000000  river_1
  11179       0.00000000       0.00000000       0.00000000  river_1
  11192       0.00000000       0.00000000       0.00000000  river_1
  11205       0.00000000       0.00000000       0.00000000  river_1
  11219       0.00000000       0.00000000       0.00000000  river_1
  11233       0.00000000       0.00000000       0.00000000  river_1
  11248       0.00000000       0.00000000       0.00000000  river_1
  11263       0.00000000       0.00000000       0.00000000  river_1
  11278       0.00000000       0.00000000       0.00000000  river_1
  11293       0.00000000       0.00000000       0.00000000  river_1
  11308       0.00000000       0.00000000       0.00000000  river_1
  11323       0.00000000       0.00000000       0.00000000  river_1
  11338       0.00000000       0.00000000       0.00000000  river_1
  11352       0.00000000       0.00000000       0.00000000  river_1
  11366       0.00000000       0.00000000       0.00000000  river_1
  11380       0.00000000       0.00000000       0.00000000  river_1
  11394       0.00000000       0.00000000       0.00000000  river_1
  11408       0.00000000       0.00000000       0.00000000  river_1
  11422       0.00000000       0.00000000       0.00000000  river_1
  11436       0.00000000       0.00000000       0.00000000  river_1
  11449       0.00000000       0.00000000       0.00000000  river_1
  11462       0.00000000       0.00000000       0.00000000  river_1
  11475       0.00000000       0.00000000       0.00000000  river_1
  348071       0.00000000       0.00000000       0.00000000  river_1
  348084       0.00000000       0.00000000       0.00000000  river_1
  10690       0.00000000       0.00000000       0.00000000  river_2
  10703       0.00000000       0.00000000       0.00000000  river_2
  10717       0.00000000       0.00000000       0.00000000  river_2
  10731       0.00000000       0.00000000       0.00000000  river_2
  10745       0.00000000       0.00000000       0.00000000  river_2
  10759       0.00000000       0.00000000       0.00000000  river_2
  10773       0.00000000       0.00000000       0.00000000  river_2
  10788       0.00000000       0.00000000       0.00000000  river_2
  10803       0.00000000       0.00000000       0.00000000  river_2
  10818       0.00000000       0.00000000       0.00000000  river_2
  10832       0.00000000       0.00000000       0.00000000  river_2
  10846       0.00000000       0.00000000       0.00000000  river_2
  10859       0.00000000       0.00000000       0.00000000  river_2
  10873       0.00000000       0.00000000       0.00000000  river_2
  10887       0.00000000       0.00000000       0.00000000  river_2
  10901       0.00000000       0.00000000       0.00000000  river_2
  10915       0.00000000       0.00000000       0.00000000  river_2
  10929       0.00000000       0.00000000       0.00000000  river_2
  10943       0.00000000       0.00000000       0.00000000  river_2
  10957       0.00000000       0.00000000       0.00000000  river_2
  10972       0.00000000       0.00000000       0.00000000  river_2
  10987       0.00000000       0.00000000       0.00000000  river_2
  11002       0.00000000       0.00000000       0.00000000  river_2
  11017       0.00000000       0.00000000       0.00000000  river_2
  11031       0.00000000       0.00000000       0.00000000  river_2
  11045       0.00000000       0.00000000       0.00000000  river_2
  11060       0.00000000       0.00000000       0.00000000  river_2
  11075       0.00000000       0.00000000       0.00000000  river_2
  11090       0.00000000       0.00000000       0.00000000  river_2
  24514       0.00000000       0.00000000       0.00000000  river_2
  24528       0.00000000       0.00000000       0.00000000  river_2
  346077       0.00000000       0.00000000       0.00000000  river_2
  346090       0.00000000       0.00000000       0.00000000  river_2
  1387       0.00000000       0.00000000       0.00000000  river_3
  6343       0.00000000       0.00000000       0.00000000  river_3
  7045       0.00000000       0.00000000       0.00000000  river_3
  13623       0.00000000       0.00000000       0.00000000  river_3
  13641       0.00000000       0.00000000       0.00000000  river_3
  13659       0.00000000       0.00000000       0.00000000  river_3
  13675       0.00000000       0.00000000       0.00000000  river_3
  13691       0.00000000       0.00000000       0.00000000  river_3
  13706       0.00000000       0.00000000       0.00000000  river_3
  13722       0.00000000       0.00000000       0.00000000  river_3
  13738       0.00000000       0.00000000       0.00000000  river_3
  13754       0.00000000       0.00000000       0.00000000  river_3
  13769       0.00000000       0.00000000       0.00000000  river_3
  13784       0.00000000       0.00000000       0.00000000  river_3
  13799       0.00000000       0.00000000       0.00000000  river_3
  13814       0.00000000       0.00000000       0.00000000  river_3
  13829       0.00000000       0.00000000       0.00000000  river_3
  13844       0.00000000       0.00000000       0.00000000  river_3
  13859       0.00000000       0.00000000       0.00000000  river_3
  13874       0.00000000       0.00000000       0.00000000  river_3
  13889       0.00000000       0.00000000       0.00000000  river_3
  13904       0.00000000       0.00000000       0.00000000  river_3
  13919       0.00000000       0.00000000       0.00000000  river_3
  13934       0.00000000       0.00000000       0.00000000  river_3
  13949       0.00000000       0.00000000       0.00000000  river_3
  13964       0.00000000       0.00000000       0.00000000  river_3
  13979       0.00000000       0.00000000       0.00000000  river_3
  13994       0.00000000       0.00000000       0.00000000  river_3
  14009       0.00000000       0.00000000       0.00000000  river_3
  14024       0.00000000       0.00000000       0.00000000  river_3
  14039       0.00000000       0.00000000       0.00000000  river_3
  14054       0.00000000       0.00000000       0.00000000  river_3
  14069       0.00000000       0.00000000       0.00000000  river_3
  14084       0.00000000       0.00000000       0.00000000  river_3
  14099       0.00000000       0.00000000       0.00000000  river_3
  14114       0.00000000       0.00000000       0.00000000  river_3
  14129       0.00000000       0.00000000       0.00000000  river_3
  14144       0.00000000       0.00000000       0.00000000  river_3
  14160       0.00000000       0.00000000       0.00000000  river_3
  14176       0.00000000       0.00000000       0.00000000  river_3
  14193       0.00000000       0.00000000       0.00000000  river_3
  14210       0.00000000       0.00000000       0.00000000  river_3
  14227       0.00000000       0.00000000       0.00000000  river_3
  14243       0.00000000       0.00000000       0.00000000  river_3
  14260       0.00000000       0.00000000       0.00000000  river_3
  14277       0.00000000       0.00000000       0.00000000  river_3
  14294       0.00000000       0.00000000       0.00000000  river_3
  14311       0.00000000       0.00000000       0.00000000  river_3
  14328       0.00000000       0.00000000       0.00000000  river_3
  14345       0.00000000       0.00000000       0.00000000  river_3
  14362       0.00000000       0.00000000       0.00000000  river_3
  14379       0.00000000       0.00000000       0.00000000  river_3
  14396       0.00000000       0.00000000       0.00000000  river_3
  14413       0.00000000       0.00000000       0.00000000  river_3
  14430       0.00000000       0.00000000       0.00000000  river_3
  14447       0.00000000       0.00000000       0.00000000  river_3
  14464       0.00000000       0.00000000       0.00000000  river_3
  14481       0.00000000       0.00000000       0.00000000  river_3
  14498       0.00000000       0.00000000       0.00000000  river_3
  14515       0.00000000       0.00000000       0.00000000  river_3
  14532       0.00000000       0.00000000       0.00000000  river_3
  14549       0.00000000       0.00000000       0.00000000  river_3
  14565       0.00000000       0.00000000       0.00000000  river_3
  14581       0.00000000       0.00000000       0.00000000  river_3
  14598       0.00000000       0.00000000       0.00000000  river_3
  14615       0.00000000       0.00000000       0.00000000  river_3
  14632       0.00000000       0.00000000       0.00000000  river_3
  14649       0.00000000       0.00000000       0.00000000  river_3
  14666       0.00000000       0.00000000       0.00000000  river_3
  14684       0.00000000       0.00000000       0.00000000  river_3
  14702       0.00000000       0.00000000       0.00000000  river_3
  14720       0.00000000       0.00000000       0.00000000  river_3
  14738       0.00000000       0.00000000       0.00000000  river_3
  14756       0.00000000       0.00000000       0.00000000  river_3
  14773       0.00000000       0.00000000       0.00000000  river_3
  14790       0.00000000       0.00000000       0.00000000  river_3
  14807       0.00000000       0.00000000       0.00000000  river_3
  14824       0.00000000       0.00000000       0.00000000  river_3
  14840       0.00000000       0.00000000       0.00000000  river_3
  14856       0.00000000       0.00000000       0.00000000  river_3
  14872       0.00000000       0.00000000       0.00000000  river_3
  14889       0.00000000       0.00000000       0.00000000  river_3
  14906       0.00000000       0.00000000       0.00000000  river_3
  14923       0.00000000       0.00000000       0.00000000  river_3
  14940       0.00000000       0.00000000       0.00000000  river_3
  14957       0.00000000       0.00000000       0.00000000  river_3
  14974       0.00000000       0.00000000       0.00000000  river_3
  14991       0.00000000       0.00000000       0.00000000  river_3
  15008       0.00000000       0.00000000       0.00000000  river_3
  15025       0.00000000       0.00000000       0.00000000  river_3
  15042       0.00000000       0.00000000       0.00000000  river_3
  15060       0.00000000       0.00000000       0.00000000  river_3
  15078       0.00000000       0.00000000       0.00000000  river_3
  15095       0.00000000       0.00000000       0.00000000  river_3
  15112       0.00000000       0.00000000       0.00000000  river_3
  15129       0.00000000       0.00000000       0.00000000  river_3
  15146       0.00000000       0.00000000       0.00000000  river_3
  15163       0.00000000       0.00000000       0.00000000  river_3
  15181       0.00000000       0.00000000       0.00000000  river_3
  15197       0.00000000       0.00000000       0.00000000  river_3
  15213       0.00000000       0.00000000       0.00000000  river_3
  15229       0.00000000       0.00000000       0.00000000  river_3
  15245       0.00000000       0.00000000       0.00000000  river_3
  15261       0.00000000       0.00000000       0.00000000  river_3
  15277       0.00000000       0.00000000       0.00000000  river_3
  15293       0.00000000       0.00000000       0.00000000  river_3
  15309       0.00000000       0.00000000       0.00000000  river_3
  15325       0.00000000       0.00000000       0.00000000  river_3
  15341       0.00000000       0.00000000       0.00000000  river_3
  15356       0.00000000       0.00000000       0.00000000  river_3
  15372       0.00000000       0.00000000       0.00000000  river_3
  15388       0.00000000       0.00000000       0.00000000  river_3
  15405       0.00000000       0.00000000       0.00000000  river_3
  15422       0.00000000       0.00000000       0.00000000  river_3
  15439       0.00000000       0.00000000       0.00000000  river_3
  15456       0.00000000       0.00000000       0.00000000  river_3
  15473       0.00000000       0.00000000       0.00000000  river_3
  15490       0.00000000       0.00000000       0.00000000  river_3
  15507       0.00000000       0.00000000       0.00000000  river_3
  15524       0.00000000       0.00000000       0.00000000  river_3
  15541       0.00000000       0.00000000       0.00000000  river_3
  15558       0.00000000       0.00000000       0.00000000  river_3
  15574       0.00000000       0.00000000       0.00000000  river_3
  15591       0.00000000       0.00000000       0.00000000  river_3
  15608       0.00000000       0.00000000       0.00000000  river_3
  15625       0.00000000       0.00000000       0.00000000  river_3
  15642       0.00000000       0.00000000       0.00000000  river_3
  15660       0.00000000       0.00000000       0.00000000  river_3
  15677       0.00000000       0.00000000       0.00000000  river_3
  15693       0.00000000       0.00000000       0.00000000  river_3
  15709       0.00000000       0.00000000       0.00000000  river_3
  15725       0.00000000       0.00000000       0.00000000  river_3
  15741       0.00000000       0.00000000       0.00000000  river_3
  15757       0.00000000       0.00000000       0.00000000  river_3
  15774       0.00000000       0.00000000       0.00000000  river_3
  15791       0.00000000       0.00000000       0.00000000  river_3
  15808       0.00000000       0.00000000       0.00000000  river_3
  15825       0.00000000       0.00000000       0.00000000  river_3
  15842       0.00000000       0.00000000       0.00000000  river_3
  15859       0.00000000       0.00000000       0.00000000  river_3
  15876       0.00000000       0.00000000       0.00000000  river_3
  15892       0.00000000       0.00000000       0.00000000  river_3
  15908       0.00000000       0.00000000       0.00000000  river_3
  15926       0.00000000       0.00000000       0.00000000  river_3
  15943       0.00000000       0.00000000       0.00000000  river_3
  15959       0.00000000       0.00000000       0.00000000  river_3
  15975       0.00000000       0.00000000       0.00000000  river_3
  15991       0.00000000       0.00000000       0.00000000  river_3
  16006       0.00000000       0.00000000       0.00000000  river_3
  16021       0.00000000       0.00000000       0.00000000  river_3
  16036       0.00000000       0.00000000       0.00000000  river_3
  16051       0.00000000       0.00000000       0.00000000  river_3
  16066       0.00000000       0.00000000       0.00000000  river_3
  16081       0.00000000       0.00000000       0.00000000  river_3
  16096       0.00000000       0.00000000       0.00000000  river_3
  16111       0.00000000       0.00000000       0.00000000  river_3
  16126       0.00000000       0.00000000       0.00000000  river_3
  16141       0.00000000       0.00000000       0.00000000  river_3
  16156       0.00000000       0.00000000       0.00000000  river_3
  16172       0.00000000       0.00000000       0.00000000  river_3
  16187       0.00000000       0.00000000       0.00000000  river_3
  16202       0.00000000       0.00000000       0.00000000  river_3
  16217       0.00000000       0.00000000       0.00000000  river_3
  16232       0.00000000       0.00000000       0.00000000  river_3
  16247       0.00000000       0.00000000       0.00000000  river_3
  16262       0.00000000       0.00000000       0.00000000  river_3
  16277       0.00000000       0.00000000       0.00000000  river_3
  16292       0.00000000       0.00000000       0.00000000  river_3
  16308       0.00000000       0.00000000       0.00000000  river_3
  16324       0.00000000       0.00000000       0.00000000  river_3
  16340       0.00000000       0.00000000       0.00000000  river_3
  16356       0.00000000       0.00000000       0.00000000  river_3
  16372       0.00000000       0.00000000       0.00000000  river_3
  16387       0.00000000       0.00000000       0.00000000  river_3
  16402       0.00000000       0.00000000       0.00000000  river_3
  16419       0.00000000       0.00000000       0.00000000  river_3
  16436       0.00000000       0.00000000       0.00000000  river_3
  16453       0.00000000       0.00000000       0.00000000  river_3
  16471       0.00000000       0.00000000       0.00000000  river_3
  16489       0.00000000       0.00000000       0.00000000  river_3
  16507       0.00000000       0.00000000       0.00000000  river_3
  16524       0.00000000       0.00000000       0.00000000  river_3
  16541       0.00000000       0.00000000       0.00000000  river_3
  16558       0.00000000       0.00000000       0.00000000  river_3
  16574       0.00000000       0.00000000       0.00000000  river_3
  16591       0.00000000       0.00000000       0.00000000  river_3
  16608       0.00000000       0.00000000       0.00000000  river_3
  16625       0.00000000       0.00000000       0.00000000  river_3
  16642       0.00000000       0.00000000       0.00000000  river_3
  16659       0.00000000       0.00000000       0.00000000  river_3
  16676       0.00000000       0.00000000       0.00000000  river_3
  16694       0.00000000       0.00000000       0.00000000  river_3
  16712       0.00000000       0.00000000       0.00000000  river_3
  16730       0.00000000       0.00000000       0.00000000  river_3
  16748       0.00000000       0.00000000       0.00000000  river_3
  16767       0.00000000       0.00000000       0.00000000  river_3
  16786       0.00000000       0.00000000       0.00000000  river_3
  16805       0.00000000       0.00000000       0.00000000  river_3
  16824       0.00000000       0.00000000       0.00000000  river_3
  16843       0.00000000       0.00000000       0.00000000  river_3
  16862       0.00000000       0.00000000       0.00000000  river_3
  16881       0.00000000       0.00000000       0.00000000  river_3
  16900       0.00000000       0.00000000       0.00000000  river_3
  16919       0.00000000       0.00000000       0.00000000  river_3
  16938       0.00000000       0.00000000       0.00000000  river_3
  16957       0.00000000       0.00000000       0.00000000  river_3
  16977       0.00000000       0.00000000       0.00000000  river_3
  16996       0.00000000       0.00000000       0.00000000  river_3
  17015       0.00000000       0.00000000       0.00000000  river_3
  17034       0.00000000       0.00000000       0.00000000  river_3
  17053       0.00000000       0.00000000       0.00000000  river_3
  17072       0.00000000       0.00000000       0.00000000  river_3
  17092       0.00000000       0.00000000       0.00000000  river_3
  17113       0.00000000       0.00000000       0.00000000  river_3
  17133       0.00000000       0.00000000       0.00000000  river_3
  17152       0.00000000       0.00000000       0.00000000  river_3
  17170       0.00000000       0.00000000       0.00000000  river_3
  17188       0.00000000       0.00000000       0.00000000  river_3
  17206       0.00000000       0.00000000       0.00000000  river_3
  17223       0.00000000       0.00000000       0.00000000  river_3
  17240       0.00000000       0.00000000       0.00000000  river_3
  17256       0.00000000       0.00000000       0.00000000  river_3
  17274       0.00000000       0.00000000       0.00000000  river_3
  17292       0.00000000       0.00000000       0.00000000  river_3
  17310       0.00000000       0.00000000       0.00000000  river_3
  17328       0.00000000       0.00000000       0.00000000  river_3
  17346       0.00000000       0.00000000       0.00000000  river_3
  17364       0.00000000       0.00000000       0.00000000  river_3
  17382       0.00000000       0.00000000       0.00000000  river_3
  17400       0.00000000       0.00000000       0.00000000  river_3
  17418       0.00000000       0.00000000       0.00000000  river_3
  17436       0.00000000       0.00000000       0.00000000  river_3
  17454       0.00000000       0.00000000       0.00000000  river_3
  17472       0.00000000       0.00000000       0.00000000  river_3
  17490       0.00000000       0.00000000       0.00000000  river_3
  17508       0.00000000       0.00000000       0.00000000  river_3
  17527       0.00000000       0.00000000       0.00000000  river_3
  17545       0.00000000       0.00000000       0.00000000  river_3
  17563       0.00000000       0.00000000       0.00000000  river_3
  17581       0.00000000       0.00000000       0.00000000  river_3
  17598       0.00000000       0.00000000       0.00000000  river_3
  17615       0.00000000       0.00000000       0.00000000  river_3
  17632       0.00000000       0.00000000       0.00000000  river_3
  17649       0.00000000       0.00000000       0.00000000  river_3
  17666       0.00000000       0.00000000       0.00000000  river_3
  17682       0.00000000       0.00000000       0.00000000  river_3
  17698       0.00000000       0.00000000       0.00000000  river_3
  17715       0.00000000       0.00000000       0.00000000  river_3
  17732       0.00000000       0.00000000       0.00000000  river_3
  17749       0.00000000       0.00000000       0.00000000  river_3
  17766       0.00000000       0.00000000       0.00000000  river_3
  17782       0.00000000       0.00000000       0.00000000  river_3
  17798       0.00000000       0.00000000       0.00000000  river_3
  17814       0.00000000       0.00000000       0.00000000  river_3
  17830       0.00000000       0.00000000       0.00000000  river_3
  17846       0.00000000       0.00000000       0.00000000  river_3
  17863       0.00000000       0.00000000       0.00000000  river_3