BEGIN options
  BOUNDNAMES
END options

BEGIN dimensions
  MAXBOUND  90
END dimensions

BEGIN period  1
  24238       0.00000000  well_0
  24239       0.00000000  well_0
  24240       0.00000000  well_0
  24241       0.00000000  well_0
  24242       0.00000000  well_0
  24243       0.00000000  well_0
  24244       0.00000000  well_0
  24245       0.00000000  well_0
  24246       0.00000000  well_0
  24247       0.00000000  well_0
  24248       0.00000000  well_0
  24249       0.00000000  well_0
  24250       0.00000000  well_0
  24251       0.00000000  well_0
  24252       0.00000000  well_0
  24253       0.00000000  well_0
  24254       0.00000000  well_0
  24255       0.00000000  well_0
  24256       0.00000000  well_0
  24279       0.00000000  well_1
  24280       0.00000000  well_1
  24281       0.00000000  well_1
  24282       0.00000000  well_1
  24283       0.00000000  well_1
  24284       0.00000000  well_1
  24285       0.00000000  well_1
  24286       0.00000000  well_1
  24287       0.00000000  well_1
  24288       0.00000000  well_1
  24289       0.00000000  well_1
  24290       0.00000000  well_1
  24291       0.00000000  well_1
  24292       0.00000000  well_1
  24293       0.00000000  well_1
  24294       0.00000000  well_1
  24295       0.00000000  well_1
  24296       0.00000000  well_1
  24297       0.00000000  well_1
  24298       0.00000000  well_1
  24321       0.00000000  well_2
  24322       0.00000000  well_2
  24323       0.00000000  well_2
  24324       0.00000000  well_2
  24325       0.00000000  well_2
  24326       0.00000000  well_2
  24327       0.00000000  well_2
  24328       0.00000000  well_2
  24329       0.00000000  well_2
  24330       0.00000000  well_2
  24331       0.00000000  well_2
  24332       0.00000000  well_2
  24346       0.00000000  well_3
  24347       0.00000000  well_3
  24348       0.00000000  well_3
  24349       0.00000000  well_3
  24350       0.00000000  well_3
  24351       0.00000000  well_3
  24352       0.00000000  well_3
  24353       0.00000000  well_3
  24381       0.00000000  well_4
  24382       0.00000000  well_4
  24414       0.00000000  well_5
  24415       0.00000000  well_5
  24416       0.00000000  well_5
  24417       0.00000000  well_5
  24418       0.00000000  well_5
  24419       0.00000000  well_5
  24420       0.00000000  well_5
  24421       0.00000000  well_5
  24422       0.00000000  well_5
  24423       0.00000000  well_5
  24424       0.00000000  well_5
  24425       0.00000000  well_5
  24426       0.00000000  well_5
  24462       0.00000000  well_6
  24463       0.00000000  well_6
  24464       0.00000000  well_6
  24465       0.00000000  well_6
  24466       0.00000000  well_6
  24467       0.00000000  well_6
  24468       0.00000000  well_6
  24469       0.00000000  well_6
  24470       0.00000000  well_6
  24471       0.00000000  well_6
  24472       0.00000000  well_6
  24473       0.00000000  well_6
  24474       0.00000000  well_6
  24475       0.00000000  well_6
  24476       0.00000000  well_6
  24477       0.00000000  well_6
END period  1

