BEGIN options
END options

BEGIN timing
  TDIS6  mf6_model.tdis
END timing

BEGIN models
  gwf6  mf6_model.nam  mf6_model
END models

BEGIN exchanges
END exchanges

BEGIN solutiongroup  1
  ims6  mf6_model.ims  mf6_model
END solutiongroup  1

