BEGIN options
  PRINT_OPTION  all
  COMPLEXITY  moderate
END options

BEGIN nonlinear
  OUTER_HCLOSE       0.01000000
  OUTER_MAXIMUM  500
END nonlinear

BEGIN linear
  INNER_MAXIMUM  130
  INNER_HCLOSE       0.01000000
  LINEAR_ACCELERATION  bicgstab
  RELAXATION_FACTOR       0.97000000
  PRECONDITIONER_LEVELS  8
  PRECONDITIONER_DROP_TOLERANCE  1.00000000E-04
END linear

