BEGIN options
  BOUNDNAMES
END options

BEGIN dimensions
  MAXBOUND  90
END dimensions

BEGIN period  1
  24156     -18.00000000  tibana_3
  24157     -18.00000000  tibana_3
  24158     -18.00000000  tibana_3
  24159     -18.00000000  tibana_3
  24160     -18.00000000  tibana_3
  24161     -18.00000000  tibana_3
  24162     -18.00000000  tibana_3
  24163     -18.00000000  tibana_3
  24164     -18.00000000  tibana_3
  24165     -18.00000000  tibana_3
  24166     -18.00000000  tibana_3
  24167     -18.00000000  tibana_3
  24168     -18.00000000  tibana_3
  24169     -18.00000000  tibana_3
  24170     -18.00000000  tibana_3
  24171     -18.00000000  tibana_3
  24172     -18.00000000  tibana_3
  24173     -18.00000000  tibana_3
  24174     -18.00000000  tibana_3
  24198     -13.00000000  umbita_1
  24199     -13.00000000  umbita_1
  24200     -13.00000000  umbita_1
  24201     -13.00000000  umbita_1
  24202     -13.00000000  umbita_1
  24203     -13.00000000  umbita_1
  24204     -13.00000000  umbita_1
  24205     -13.00000000  umbita_1
  24206     -13.00000000  umbita_1
  24207     -13.00000000  umbita_1
  24208     -13.00000000  umbita_1
  24209     -13.00000000  umbita_1
  24210     -13.00000000  umbita_1
  24211     -13.00000000  umbita_1
  24212     -13.00000000  umbita_1
  24213     -13.00000000  umbita_1
  24214     -13.00000000  umbita_1
  24215     -13.00000000  umbita_1
  24216     -13.00000000  umbita_1
  24239     -16.00000000  umbita_2
  24240     -16.00000000  umbita_2
  24241     -16.00000000  umbita_2
  24242     -16.00000000  umbita_2
  24243     -16.00000000  umbita_2
  24244     -16.00000000  umbita_2
  24245     -16.00000000  umbita_2
  24246     -16.00000000  umbita_2
  24247     -16.00000000  umbita_2
  24248     -16.00000000  umbita_2
  24249     -16.00000000  umbita_2
  24250     -16.00000000  umbita_2
  24267     -12.00000000  chinavita_1
  24268     -12.00000000  chinavita_1
  24269     -12.00000000  chinavita_1
  24270     -12.00000000  chinavita_1
  24271     -12.00000000  chinavita_1
  24272     -12.00000000  chinavita_1
  24273     -12.00000000  chinavita_1
  24274     -12.00000000  chinavita_1
  24275     -12.00000000  chinavita_1
  24303     -14.00000000  tibana_1
  24304     -14.00000000  tibana_1
  24334     -17.00000000  tibana_2
  24335     -17.00000000  tibana_2
  24336     -17.00000000  tibana_2
  24337     -17.00000000  tibana_2
  24338     -17.00000000  tibana_2
  24339     -17.00000000  tibana_2
  24340     -17.00000000  tibana_2
  24341     -17.00000000  tibana_2
  24342     -17.00000000  tibana_2
  24343     -17.00000000  tibana_2
  24344     -17.00000000  tibana_2
  24345     -17.00000000  tibana_2
  24346     -17.00000000  tibana_2
  24382     -15.00000000  chinavita_2
  24383     -15.00000000  chinavita_2
  24384     -15.00000000  chinavita_2
  24385     -15.00000000  chinavita_2
  24386     -15.00000000  chinavita_2
  24387     -15.00000000  chinavita_2
  24388     -15.00000000  chinavita_2
  24389     -15.00000000  chinavita_2
  24390     -15.00000000  chinavita_2
  24391     -15.00000000  chinavita_2
  24392     -15.00000000  chinavita_2
  24393     -15.00000000  chinavita_2
  24394     -15.00000000  chinavita_2
  24395     -15.00000000  chinavita_2
  24396     -15.00000000  chinavita_2
  24397     -15.00000000  chinavita_2
END period  1

