BEGIN options
  BOUNDNAMES
END options

BEGIN dimensions
  MAXBOUND  1576
END dimensions

BEGIN period  1
  1397    2615.56543162      30.00000000    2613.56543162  CD_LAS_LARA
  1411    2603.10831491      30.00000000    2601.10831491  CD_LAS_LARA
  1426    2598.00491308      30.00000000    2596.00491308  CD_LAS_LARA
  1440    2594.00386097      30.00000000    2592.00386097  CD_LAS_LARA
  1454    2583.83368349      30.00000000    2581.83368349  CD_LAS_LARA
  1468    2574.60575135      30.00000000    2572.60575135  CD_LAS_LARA
  1482    2566.53822909      30.00000000    2564.53822909  CD_LAS_LARA
  1496    2559.67680114      30.00000000    2557.67680114  CD_LAS_LARA
  1510    2553.72591503      30.00000000    2551.72591503  CD_LAS_LARA
  1524    2542.38187754      30.00000000    2540.38187754  CD_LAS_LARA
  1538    2533.99273046      30.00000000    2531.99273046  CD_LAS_LARA
  1552    2533.88087957      30.00000000    2531.88087957  CD_LAS_LARA
  1566    2528.05011709      30.00000000    2526.05011709  CD_LAS_LARA
  1580    2521.15482494      30.00000000    2519.15482494  CD_LAS_LARA
  1594    2514.63231153      30.00000000    2512.63231153  CD_LAS_LARA
  1608    2508.80369796      30.00000000    2506.80369796  CD_LAS_LARA
  1622    2501.42881561      30.00000000    2499.42881561  CD_LAS_LARA
  1636    2498.67507568      30.00000000    2496.67507568  CD_LAS_LARA
  1649    2494.11414825      30.00000000    2492.11414825  CD_LAS_LARA
  1662    2489.46069724      30.00000000    2487.46069724  CD_LAS_LARA
  1675    2486.18303464      30.00000000    2484.18303464  CD_LAS_LARA
  1688    2483.87496525      30.00000000    2481.87496525  CD_LAS_LARA
  1701    2480.51760149      30.00000000    2478.51760149  CD_LAS_LARA
  1713    2474.96008248      30.00000000    2472.96008248  CD_LAS_LARA
  1725    2468.92624313      30.00000000    2466.92624313  CD_LAS_LARA
  1737    2464.89154850      30.00000000    2462.89154850  CD_LAS_LARA
  1750    2461.66882119      30.00000000    2459.66882119  CD_LAS_LARA
  1763    2458.10694205      30.00000000    2456.10694205  CD_LAS_LARA
  1776    2453.51595803      30.00000000    2451.51595803  CD_LAS_LARA
  1789    2447.37113990      30.00000000    2445.37113990  CD_LAS_LARA
  1801    2443.47229127      30.00000000    2441.47229127  CD_LAS_LARA
  1813    2440.25959198      30.00000000    2438.25959198  CD_LAS_LARA
  1825    2433.37238837      30.00000000    2431.37238837  CD_LAS_LARA
  1837    2430.19538778      30.00000000    2428.19538778  CD_LAS_LARA
  1849    2428.07887959      30.00000000    2426.07887959  CD_LAS_LARA
  1861    2422.51933561      30.00000000    2420.51933561  CD_LAS_LARA
  1874    2413.17850850      30.00000000    2411.17850850  CD_LAS_LARA
  1886    2407.68193816      30.00000000    2405.68193816  CD_LAS_LARA
  1899    2404.10939055      30.00000000    2402.10939055  CD_LAS_LARA
  1912    2400.21632027      30.00000000    2398.21632027  CD_LAS_LARA
  1925    2399.11558275      30.00000000    2397.11558275  CD_LAS_LARA
  1938    2394.12559049      30.00000000    2392.12559049  CD_LAS_LARA
  1951    2383.87863035      30.00000000    2381.87863035  CD_LAS_LARA
  1964    2374.30178092      30.00000000    2372.30178092  CD_LAS_LARA
  1977    2366.81407431      30.00000000    2364.81407431  CD_LAS_LARA
  1992    2356.77958078      30.00000000    2354.77958078  CD_LAS_LARA
  2007    2347.84053368      30.00000000    2345.84053368  CD_LAS_LARA
  2022    2336.89226732      30.00000000    2334.89226732  CD_LAS_LARA
  2036    2327.07465926      30.00000000    2325.07465926  CD_LAS_LARA
  2050    2319.69705047      30.00000000    2317.69705047  CD_LAS_LARA
  2063    2313.27382133      30.00000000    2311.27382133  CD_LAS_LARA
  2076    2308.45398956      30.00000000    2306.45398956  CD_LAS_LARA
  2089    2305.26012542      30.00000000    2303.26012542  CD_LAS_LARA
  2102    2301.63643695      30.00000000    2299.63643695  CD_LAS_LARA
  2115    2296.64705122      30.00000000    2294.64705122  CD_LAS_LARA
  2128    2292.60640396      30.00000000    2290.60640396  CD_LAS_LARA
  2142    2287.12321566      30.00000000    2285.12321566  CD_LAS_LARA
  2156    2281.84344831      30.00000000    2279.84344831  CD_LAS_LARA
  2170    2273.73818863      30.00000000    2271.73818863  CD_LAS_LARA
  2184    2269.30616871      30.00000000    2267.30616871  CD_LAS_LARA
  2198    2267.83946923      30.00000000    2265.83946923  CD_LAS_LARA
  2213    2262.46074442      30.00000000    2260.46074442  CD_LAS_LARA
  2227    2258.42089483      30.00000000    2256.42089483  CD_LAS_LARA
  2242    2253.07574301      30.00000000    2251.07574301  CD_LAS_LARA
  2257    2246.90140687      30.00000000    2244.90140687  CD_LAS_LARA
  2272    2238.77162165      30.00000000    2236.77162165  CD_LAS_LARA
  2288    2227.77830044      30.00000000    2225.77830044  CD_LAS_LARA
  2304    2221.82323013      30.00000000    2219.82323013  CD_LAS_LARA
  2320    2216.56301530      30.00000000    2214.56301530  CD_LAS_LARA
  2336    2214.09901843      30.00000000    2212.09901843  CD_LAS_LARA
  2352    2214.01696204      30.00000000    2212.01696204  CD_LAS_LARA
  2368    2212.53737600      30.00000000    2210.53737600  CD_LAS_LARA
  2386    2209.79233869      30.00000000    2207.79233869  CD_LAS_LARA
  2403    2201.34762090      30.00000000    2199.34762090  CD_LAS_LARA
  2420    2193.79108762      30.00000000    2191.79108762  CD_LAS_LARA
  2436    2188.04424776      30.00000000    2186.04424776  CD_LAS_LARA
  2452    2183.93522336      30.00000000    2181.93522336  CD_LAS_LARA
  2467    2177.31060457      30.00000000    2175.31060457  CD_LAS_LARA
  2483    2169.70105121      30.00000000    2167.70105121  CD_LAS_LARA
  2499    2163.03312664      30.00000000    2161.03312664  CD_LAS_LARA
  2515    2156.65330534      30.00000000    2154.65330534  CD_LAS_LARA
  2531    2151.86804969      30.00000000    2149.86804969  CD_LAS_LARA
  2548    2142.41311300      30.00000000    2140.41311300  CD_LAS_LARA
  2564    2133.86089265      30.00000000    2131.86089265  CD_LAS_LARA
  2580    2128.46391004      30.00000000    2126.46391004  CD_LAS_LARA
  2596    2126.38201616      30.00000000    2124.38201616  CD_LAS_LARA
  2613    2125.88656341      30.00000000    2123.88656341  CD_LAS_LARA
  2630    2125.64525684      30.00000000    2123.64525684  CD_LAS_LARA
  2646    2126.22790865      30.00000000    2124.22790865  CD_LAS_LARA
  2662    2123.43298342      30.00000000    2121.43298342  CD_LAS_LARA
  2678    2116.95692818      30.00000000    2114.95692818  CD_LAS_LARA
  2694    2110.80395442      30.00000000    2108.80395442  CD_LAS_LARA
  2711    2106.82724408      30.00000000    2104.82724408  CD_LAS_LARA
  2728    2098.77262002      30.00000000    2096.77262002  CD_LAS_LARA
  2745    2090.38409938      30.00000000    2088.38409938  CD_LAS_LARA
  2762    2084.26659167      30.00000000    2082.26659167  CD_LAS_LARA
  2779    2075.68282932      30.00000000    2073.68282932  CD_LAS_LARA
  2796    2068.29478626      30.00000000    2066.29478626  CD_LAS_LARA
  2813    2062.48448009      30.00000000    2060.48448009  CD_LAS_LARA
  2830    2057.50286893      30.00000000    2055.50286893  CD_LAS_LARA
  2847    2053.15169137      30.00000000    2051.15169137  CD_LAS_LARA
  2865    2044.52927221      30.00000000    2042.52927221  CD_LAS_LARA
  2883    2039.62117531      30.00000000    2037.62117531  CD_LAS_LARA
  2901    2035.98666365      30.00000000    2033.98666365  CD_LAS_LARA
  2919    2029.88942811      30.00000000    2027.88942811  CD_LAS_LARA
  2937    2023.80022493      30.00000000    2021.80022493  CD_LAS_LARA
  2954    2017.45444990      30.00000000    2015.45444990  CD_LAS_LARA
  2971    2005.12041445      30.00000000    2003.12041445  CD_LAS_LARA
  2987    1995.62375567      30.00000000    1993.62375567  CD_LAS_LARA
  3002    1985.09238210      30.00000000    1983.09238210  CD_LAS_LARA
  3018    1973.64250561      30.00000000    1971.64250561  CD_LAS_LARA
  3035    1964.27707022      30.00000000    1962.27707022  CD_LAS_LARA
  3052    1952.62780069      30.00000000    1950.62780069  CD_LAS_LARA
  3069    1944.84278823      30.00000000    1942.84278823  CD_LAS_LARA
  3086    1939.49175613      30.00000000    1937.49175613  CD_LAS_LARA
  3103    1929.01774303      30.00000000    1927.01774303  CD_LAS_LARA
  3120    1920.47474001      30.00000000    1918.47474001  CD_LAS_LARA
  3137    1915.33031262      30.00000000    1913.33031262  CD_LAS_LARA
  3154    1908.55183923      30.00000000    1906.55183923  CD_LAS_LARA
  349285    1896.88204046      30.00000000    1894.88204046  CD_LAS_LARA
  349302    1901.06130268      30.00000000    1899.06130268  CD_LAS_LARA
  11052    2270.90752151      30.00000000    2268.90752151  Q._VOLADOR
  11064    2263.31794599      30.00000000    2261.31794599  Q._VOLADOR
  11076    2254.94739063      30.00000000    2252.94739063  Q._VOLADOR
  11088    2248.47827856      30.00000000    2246.47827856  Q._VOLADOR
  11100    2244.84481116      30.00000000    2242.84481116  Q._VOLADOR
  11113    2242.54763096      30.00000000    2240.54763096  Q._VOLADOR
  11126    2235.83291294      30.00000000    2233.83291294  Q._VOLADOR
  11139    2232.65538608      30.00000000    2230.65538608  Q._VOLADOR
  11152    2232.06439128      30.00000000    2230.06439128  Q._VOLADOR
  11166    2230.84500287      30.00000000    2228.84500287  Q._VOLADOR
  11180    2230.31860974      30.00000000    2228.31860974  Q._VOLADOR
  11195    2229.42996363      30.00000000    2227.42996363  Q._VOLADOR
  11210    2226.92560411      30.00000000    2224.92560411  Q._VOLADOR
  11225    2224.03827309      30.00000000    2222.03827309  Q._VOLADOR
  11240    2222.29053156      30.00000000    2220.29053156  Q._VOLADOR
  11255    2220.73875058      30.00000000    2218.73875058  Q._VOLADOR
  11270    2214.69944189      30.00000000    2212.69944189  Q._VOLADOR
  11285    2208.69687347      30.00000000    2206.69687347  Q._VOLADOR
  11299    2200.70724570      30.00000000    2198.70724570  Q._VOLADOR
  11313    2188.95533946      30.00000000    2186.95533946  Q._VOLADOR
  11327    2175.79089110      30.00000000    2173.79089110  Q._VOLADOR
  11341    2168.97404806      30.00000000    2166.97404806  Q._VOLADOR
  11355    2161.72545004      30.00000000    2159.72545004  Q._VOLADOR
  11369    2154.60823606      30.00000000    2152.60823606  Q._VOLADOR
  11383    2146.93173938      30.00000000    2144.93173938  Q._VOLADOR
  11396    2137.09012045      30.00000000    2135.09012045  Q._VOLADOR
  11409    2129.97447866      30.00000000    2127.97447866  Q._VOLADOR
  11422    2125.69525054      30.00000000    2123.69525054  Q._VOLADOR
  346626    2126.16357677      30.00000000    2124.16357677  Q._VOLADOR
  346639    2126.87774161      30.00000000    2124.87774161  Q._VOLADOR
  10637    2302.32244000      30.00000000    2300.32244000  Q._RUBIO
  10650    2296.67096840      30.00000000    2294.67096840  Q._RUBIO
  10664    2292.78099083      30.00000000    2290.78099083  Q._RUBIO
  10678    2290.08999564      30.00000000    2288.08999564  Q._RUBIO
  10692    2285.72182237      30.00000000    2283.72182237  Q._RUBIO
  10706    2279.66171016      30.00000000    2277.66171016  Q._RUBIO
  10720    2278.61606578      30.00000000    2276.61606578  Q._RUBIO
  10735    2277.84662939      30.00000000    2275.84662939  Q._RUBIO
  10750    2276.64794624      30.00000000    2274.64794624  Q._RUBIO
  10765    2275.65768861      30.00000000    2273.65768861  Q._RUBIO
  10779    2275.38675320      30.00000000    2273.38675320  Q._RUBIO
  10793    2273.79387261      30.00000000    2271.79387261  Q._RUBIO
  10806    2273.11804288      30.00000000    2271.11804288  Q._RUBIO
  10820    2273.35781493      30.00000000    2271.35781493  Q._RUBIO
  10834    2271.51132744      30.00000000    2269.51132744  Q._RUBIO
  10848    2269.21313453      30.00000000    2267.21313453  Q._RUBIO
  10862    2266.39905679      30.00000000    2264.39905679  Q._RUBIO
  10876    2252.34516187      30.00000000    2250.34516187  Q._RUBIO
  10890    2238.21711306      30.00000000    2236.21711306  Q._RUBIO
  10904    2236.00518041      30.00000000    2234.00518041  Q._RUBIO
  10919    2228.70448992      30.00000000    2226.70448992  Q._RUBIO
  10934    2227.64354468      30.00000000    2225.64354468  Q._RUBIO
  10949    2227.24331692      30.00000000    2225.24331692  Q._RUBIO
  10964    2223.84205264      30.00000000    2221.84205264  Q._RUBIO
  10978    2212.47155937      30.00000000    2210.47155937  Q._RUBIO
  10992    2192.38186558      30.00000000    2190.38186558  Q._RUBIO
  11007    2178.17678381      30.00000000    2176.17678381  Q._RUBIO
  11022    2173.76586045      30.00000000    2171.76586045  Q._RUBIO
  11037    2164.98315324      30.00000000    2162.98315324  Q._RUBIO
  24434    2299.06394715      30.00000000    2297.06394715  Q._RUBIO
  24448    2300.51628515      30.00000000    2298.51628515  Q._RUBIO
  344658    2302.73802869      30.00000000    2300.73802869  Q._RUBIO
  344671    2303.35341717      30.00000000    2301.35341717  Q._RUBIO
  1382    2305.26035465      30.00000000    2303.26035465  RIO_BOSQUE
  6325    2124.13008827      30.00000000    2122.13008827  RIO_BOSQUE
  7026    2032.23330551      30.00000000    2030.23330551  RIO_BOSQUE
  13562    2756.18398316      30.00000000    2754.18398316  RIO_BOSQUE
  13580    2751.90693675      30.00000000    2749.90693675  RIO_BOSQUE
  13598    2748.35889362      30.00000000    2746.35889362  RIO_BOSQUE
  13614    2747.57888957      30.00000000    2745.57888957  RIO_BOSQUE
  13630    2747.72488783      30.00000000    2745.72488783  RIO_BOSQUE
  13645    2743.23321689      30.00000000    2741.23321689  RIO_BOSQUE
  13661    2741.58075100      30.00000000    2739.58075100  RIO_BOSQUE
  13677    2740.63492167      30.00000000    2738.63492167  RIO_BOSQUE
  13692    2738.45645016      30.00000000    2736.45645016  RIO_BOSQUE
  13707    2735.28253133      30.00000000    2733.28253133  RIO_BOSQUE
  13722    2734.10232472      30.00000000    2732.10232472  RIO_BOSQUE
  13737    2738.07580588      30.00000000    2736.07580588  RIO_BOSQUE
  13752    2738.29116892      30.00000000    2736.29116892  RIO_BOSQUE
  13767    2736.78555428      30.00000000    2734.78555428  RIO_BOSQUE
  13782    2733.38935387      30.00000000    2731.38935387  RIO_BOSQUE
  13797    2729.74262268      30.00000000    2727.74262268  RIO_BOSQUE
  13812    2727.48137493      30.00000000    2725.48137493  RIO_BOSQUE
  13827    2726.45664322      30.00000000    2724.45664322  RIO_BOSQUE
  13842    2725.71648104      30.00000000    2723.71648104  RIO_BOSQUE
  13857    2726.39206415      30.00000000    2724.39206415  RIO_BOSQUE
  13872    2726.74091332      30.00000000    2724.74091332  RIO_BOSQUE
  13887    2727.79388933      30.00000000    2725.79388933  RIO_BOSQUE
  13902    2729.00950372      30.00000000    2727.00950372  RIO_BOSQUE
  13917    2731.52488651      30.00000000    2729.52488651  RIO_BOSQUE
  13932    2730.55756989      30.00000000    2728.55756989  RIO_BOSQUE
  13947    2727.94934544      30.00000000    2725.94934544  RIO_BOSQUE
  13962    2720.17927279      30.00000000    2718.17927279  RIO_BOSQUE
  13977    2714.83516477      30.00000000    2712.83516477  RIO_BOSQUE
  13992    2712.51320449      30.00000000    2710.51320449  RIO_BOSQUE
  14007    2711.62919519      30.00000000    2709.62919519  RIO_BOSQUE
  14022    2711.54496425      30.00000000    2709.54496425  RIO_BOSQUE
  14037    2709.27979506      30.00000000    2707.27979506  RIO_BOSQUE
  14052    2708.25326952      30.00000000    2706.25326952  RIO_BOSQUE
  14067    2708.18060528      30.00000000    2706.18060528  RIO_BOSQUE
  14082    2705.72323011      30.00000000    2703.72323011  RIO_BOSQUE
  14098    2705.64231485      30.00000000    2703.64231485  RIO_BOSQUE
  14114    2711.80577959      30.00000000    2709.80577959  RIO_BOSQUE
  14131    2719.03457721      30.00000000    2717.03457721  RIO_BOSQUE
  14148    2727.51073221      30.00000000    2725.51073221  RIO_BOSQUE
  14165    2720.86132565      30.00000000    2718.86132565  RIO_BOSQUE
  14181    2703.40677328      30.00000000    2701.40677328  RIO_BOSQUE
  14198    2696.71025244      30.00000000    2694.71025244  RIO_BOSQUE
  14215    2701.23789267      30.00000000    2699.23789267  RIO_BOSQUE
  14232    2703.34622068      30.00000000    2701.34622068  RIO_BOSQUE
  14249    2698.24121410      30.00000000    2696.24121410  RIO_BOSQUE
  14266    2693.70621481      30.00000000    2691.70621481  RIO_BOSQUE
  14283    2687.04875701      30.00000000    2685.04875701  RIO_BOSQUE
  14300    2688.29010891      30.00000000    2686.29010891  RIO_BOSQUE
  14317    2691.81911086      30.00000000    2689.81911086  RIO_BOSQUE
  14334    2687.49867949      30.00000000    2685.49867949  RIO_BOSQUE
  14351    2683.71790235      30.00000000    2681.71790235  RIO_BOSQUE
  14368    2679.39245425      30.00000000    2677.39245425  RIO_BOSQUE
  14385    2675.46809254      30.00000000    2673.46809254  RIO_BOSQUE
  14402    2671.59381493      30.00000000    2669.59381493  RIO_BOSQUE
  14419    2661.36936682      30.00000000    2659.36936682  RIO_BOSQUE
  14436    2645.20812924      30.00000000    2643.20812924  RIO_BOSQUE
  14453    2629.79057194      30.00000000    2627.79057194  RIO_BOSQUE
  14470    2620.79732962      30.00000000    2618.79732962  RIO_BOSQUE
  14487    2616.56915820      30.00000000    2614.56915820  RIO_BOSQUE
  14503    2612.92047018      30.00000000    2610.92047018  RIO_BOSQUE
  14519    2610.15810999      30.00000000    2608.15810999  RIO_BOSQUE
  14536    2608.80757950      30.00000000    2606.80757950  RIO_BOSQUE
  14553    2608.09460403      30.00000000    2606.09460403  RIO_BOSQUE
  14570    2607.87506780      30.00000000    2605.87506780  RIO_BOSQUE
  14587    2601.79556798      30.00000000    2599.79556798  RIO_BOSQUE
  14604    2597.41293290      30.00000000    2595.41293290  RIO_BOSQUE
  14622    2596.58782173      30.00000000    2594.58782173  RIO_BOSQUE
  14640    2594.56187945      30.00000000    2592.56187945  RIO_BOSQUE
  14658    2594.71996235      30.00000000    2592.71996235  RIO_BOSQUE
  14676    2590.27162003      30.00000000    2588.27162003  RIO_BOSQUE
  14694    2585.18356763      30.00000000    2583.18356763  RIO_BOSQUE
  14711    2583.92389876      30.00000000    2581.92389876  RIO_BOSQUE
  14728    2586.91946598      30.00000000    2584.91946598  RIO_BOSQUE
  14745    2584.16492832      30.00000000    2582.16492832  RIO_BOSQUE
  14762    2577.38767713      30.00000000    2575.38767713  RIO_BOSQUE
  14778    2573.22273033      30.00000000    2571.22273033  RIO_BOSQUE
  14794    2568.07995139      30.00000000    2566.07995139  RIO_BOSQUE
  14810    2562.57231075      30.00000000    2560.57231075  RIO_BOSQUE
  14827    2558.58035845      30.00000000    2556.58035845  RIO_BOSQUE
  14844    2559.57691235      30.00000000    2557.57691235  RIO_BOSQUE
  14861    2560.51587818      30.00000000    2558.51587818  RIO_BOSQUE
  14878    2557.24815300      30.00000000    2555.24815300  RIO_BOSQUE
  14895    2556.59978635      30.00000000    2554.59978635  RIO_BOSQUE
  14912    2555.13314581      30.00000000    2553.13314581  RIO_BOSQUE
  14929    2553.84532855      30.00000000    2551.84532855  RIO_BOSQUE
  14946    2547.47350575      30.00000000    2545.47350575  RIO_BOSQUE
  14963    2544.40012375      30.00000000    2542.40012375  RIO_BOSQUE
  14980    2543.09575612      30.00000000    2541.09575612  RIO_BOSQUE
  14998    2543.58525091      30.00000000    2541.58525091  RIO_BOSQUE
  15016    2536.05294134      30.00000000    2534.05294134  RIO_BOSQUE
  15033    2527.82997250      30.00000000    2525.82997250  RIO_BOSQUE
  15050    2518.25343413      30.00000000    2516.25343413  RIO_BOSQUE
  15067    2509.33122251      30.00000000    2507.33122251  RIO_BOSQUE
  15084    2506.76439777      30.00000000    2504.76439777  RIO_BOSQUE
  15101    2507.25397418      30.00000000    2505.25397418  RIO_BOSQUE
  15119    2505.97263265      30.00000000    2503.97263265  RIO_BOSQUE
  15135    2498.96839798      30.00000000    2496.96839798  RIO_BOSQUE
  15151    2489.24790876      30.00000000    2487.24790876  RIO_BOSQUE
  15167    2479.79381449      30.00000000    2477.79381449  RIO_BOSQUE
  15183    2479.41016889      30.00000000    2477.41016889  RIO_BOSQUE
  15199    2483.76702201      30.00000000    2481.76702201  RIO_BOSQUE
  15215    2484.25355251      30.00000000    2482.25355251  RIO_BOSQUE
  15231    2485.06640818      30.00000000    2483.06640818  RIO_BOSQUE
  15247    2483.97244844      30.00000000    2481.97244844  RIO_BOSQUE
  15263    2474.84351492      30.00000000    2472.84351492  RIO_BOSQUE
  15279    2463.88869900      30.00000000    2461.88869900  RIO_BOSQUE
  15294    2457.65168529      30.00000000    2455.65168529  RIO_BOSQUE
  15309    2451.42037973      30.00000000    2449.42037973  RIO_BOSQUE
  15324    2444.96733714      30.00000000    2442.96733714  RIO_BOSQUE
  15340    2438.81957248      30.00000000    2436.81957248  RIO_BOSQUE
  15357    2433.17578714      30.00000000    2431.17578714  RIO_BOSQUE
  15374    2428.53016881      30.00000000    2426.53016881  RIO_BOSQUE
  15391    2426.38698062      30.00000000    2424.38698062  RIO_BOSQUE
  15408    2423.29124512      30.00000000    2421.29124512  RIO_BOSQUE
  15425    2417.97418163      30.00000000    2415.97418163  RIO_BOSQUE
  15442    2413.09590566      30.00000000    2411.09590566  RIO_BOSQUE
  15459    2408.14351678      30.00000000    2406.14351678  RIO_BOSQUE
  15476    2406.33665597      30.00000000    2404.33665597  RIO_BOSQUE
  15493    2404.23868019      30.00000000    2402.23868019  RIO_BOSQUE
  15509    2401.55839252      30.00000000    2399.55839252  RIO_BOSQUE
  15526    2397.00481381      30.00000000    2395.00481381  RIO_BOSQUE
  15543    2391.90972615      30.00000000    2389.90972615  RIO_BOSQUE
  15560    2390.39525427      30.00000000    2388.39525427  RIO_BOSQUE
  15577    2390.21255850      30.00000000    2388.21255850  RIO_BOSQUE
  15595    2388.17288871      30.00000000    2386.17288871  RIO_BOSQUE
  15612    2384.42071844      30.00000000    2382.42071844  RIO_BOSQUE
  15628    2378.73429074      30.00000000    2376.73429074  RIO_BOSQUE
  15644    2376.21014878      30.00000000    2374.21014878  RIO_BOSQUE
  15660    2374.98109653      30.00000000    2372.98109653  RIO_BOSQUE
  15676    2373.74823248      30.00000000    2371.74823248  RIO_BOSQUE
  15692    2370.14442108      30.00000000    2368.14442108  RIO_BOSQUE
  15709    2367.29754840      30.00000000    2365.29754840  RIO_BOSQUE
  15726    2365.52784798      30.00000000    2363.52784798  RIO_BOSQUE
  15743    2365.59566693      30.00000000    2363.59566693  RIO_BOSQUE
  15760    2364.59133921      30.00000000    2362.59133921  RIO_BOSQUE
  15777    2360.97523537      30.00000000    2358.97523537  RIO_BOSQUE
  15794    2356.65740610      30.00000000    2354.65740610  RIO_BOSQUE
  15810    2352.75275139      30.00000000    2350.75275139  RIO_BOSQUE
  15826    2351.81616733      30.00000000    2349.81616733  RIO_BOSQUE
  15842    2354.92698799      30.00000000    2352.92698799  RIO_BOSQUE
  15859    2352.90554075      30.00000000    2350.90554075  RIO_BOSQUE
  15876    2349.51952616      30.00000000    2347.51952616  RIO_BOSQUE
  15892    2344.24991370      30.00000000    2342.24991370  RIO_BOSQUE
  15908    2339.12612759      30.00000000    2337.12612759  RIO_BOSQUE
  15924    2333.26408705      30.00000000    2331.26408705  RIO_BOSQUE
  15939    2330.07185629      30.00000000    2328.07185629  RIO_BOSQUE
  15954    2326.16909814      30.00000000    2324.16909814  RIO_BOSQUE
  15969    2322.16391041      30.00000000    2320.16391041  RIO_BOSQUE
  15984    2320.78951666      30.00000000    2318.78951666  RIO_BOSQUE
  15999    2319.10285404      30.00000000    2317.10285404  RIO_BOSQUE
  16014    2317.13256064      30.00000000    2315.13256064  RIO_BOSQUE
  16029    2316.84538364      30.00000000    2314.84538364  RIO_BOSQUE
  16044    2314.93778843      30.00000000    2312.93778843  RIO_BOSQUE
  16059    2314.21794314      30.00000000    2312.21794314  RIO_BOSQUE
  16074    2313.57027166      30.00000000    2311.57027166  RIO_BOSQUE
  16089    2312.37338343      30.00000000    2310.37338343  RIO_BOSQUE
  16105    2308.45976015      30.00000000    2306.45976015  RIO_BOSQUE
  16120    2310.85216354      30.00000000    2308.85216354  RIO_BOSQUE
  16135    2313.95341626      30.00000000    2311.95341626  RIO_BOSQUE
  16150    2314.26492274      30.00000000    2312.26492274  RIO_BOSQUE
  16165    2314.31603922      30.00000000    2312.31603922  RIO_BOSQUE
  16180    2315.37376545      30.00000000    2313.37376545  RIO_BOSQUE
  16195    2310.91420118      30.00000000    2308.91420118  RIO_BOSQUE
  16210    2309.74150103      30.00000000    2307.74150103  RIO_BOSQUE
  16225    2313.60181583      30.00000000    2311.60181583  RIO_BOSQUE
  16240    2309.89006817      30.00000000    2307.89006817  RIO_BOSQUE
  16255    2301.91927842      30.00000000    2299.91927842  RIO_BOSQUE
  16270    2298.44475851      30.00000000    2296.44475851  RIO_BOSQUE
  16286    2296.92824149      30.00000000    2294.92824149  RIO_BOSQUE
  16302    2298.37401247      30.00000000    2296.37401247  RIO_BOSQUE
  16317    2299.04676950      30.00000000    2297.04676950  RIO_BOSQUE
  16332    2297.68957328      30.00000000    2295.68957328  RIO_BOSQUE
  16349    2299.76787792      30.00000000    2297.76787792  RIO_BOSQUE
  16366    2303.11495962      30.00000000    2301.11495962  RIO_BOSQUE
  16383    2301.58155484      30.00000000    2299.58155484  RIO_BOSQUE
  16401    2299.43476696      30.00000000    2297.43476696  RIO_BOSQUE
  16419    2297.09886183      30.00000000    2295.09886183  RIO_BOSQUE
  16437    2292.85244045      30.00000000    2290.85244045  RIO_BOSQUE
  16454    2284.22308139      30.00000000    2282.22308139  RIO_BOSQUE
  16471    2279.64138609      30.00000000    2277.64138609  RIO_BOSQUE
  16488    2275.04375937      30.00000000    2273.04375937  RIO_BOSQUE
  16504    2276.43233881      30.00000000    2274.43233881  RIO_BOSQUE
  16521    2274.51138824      30.00000000    2272.51138824  RIO_BOSQUE
  16538    2271.83799731      30.00000000    2269.83799731  RIO_BOSQUE
  16555    2270.52028276      30.00000000    2268.52028276  RIO_BOSQUE
  16572    2266.66912179      30.00000000    2264.66912179  RIO_BOSQUE
  16589    2265.69122300      30.00000000    2263.69122300  RIO_BOSQUE
  16606    2265.18065278      30.00000000    2263.18065278  RIO_BOSQUE
  16624    2270.10166514      30.00000000    2268.10166514  RIO_BOSQUE
  16642    2268.68508230      30.00000000    2266.68508230  RIO_BOSQUE
  16660    2266.39970165      30.00000000    2264.39970165  RIO_BOSQUE
  16678    2264.44771216      30.00000000    2262.44771216  RIO_BOSQUE
  16697    2261.11987753      30.00000000    2259.11987753  RIO_BOSQUE
  16716    2258.62407573      30.00000000    2256.62407573  RIO_BOSQUE
  16735    2259.24562534      30.00000000    2257.24562534  RIO_BOSQUE
  16754    2258.45044441      30.00000000    2256.45044441  RIO_BOSQUE
  16773    2260.36353449      30.00000000    2258.36353449  RIO_BOSQUE
  16792    2263.85893942      30.00000000    2261.85893942  RIO_BOSQUE
  16811    2268.42749208      30.00000000    2266.42749208  RIO_BOSQUE
  16830    2270.78076398      30.00000000    2268.78076398  RIO_BOSQUE
  16849    2275.53844917      30.00000000    2273.53844917  RIO_BOSQUE
  16868    2268.96178969      30.00000000    2266.96178969  RIO_BOSQUE
  16887    2259.74863242      30.00000000    2257.74863242  RIO_BOSQUE
  16906    2248.00630250      30.00000000    2246.00630250  RIO_BOSQUE
  16925    2243.42027602      30.00000000    2241.42027602  RIO_BOSQUE
  16944    2240.02054536      30.00000000    2238.02054536  RIO_BOSQUE
  16963    2236.42388991      30.00000000    2234.42388991  RIO_BOSQUE
  16982    2234.69764480      30.00000000    2232.69764480  RIO_BOSQUE
  17001    2234.50000000      30.00000000    2232.50000000  RIO_BOSQUE
  17021    2233.94045267      30.00000000    2231.94045267  RIO_BOSQUE
  17042    2231.82421671      30.00000000    2229.82421671  RIO_BOSQUE
  17061    2229.38410301      30.00000000    2227.38410301  RIO_BOSQUE
  17080    2225.35138184      30.00000000    2223.35138184  RIO_BOSQUE
  17098    2223.01941790      30.00000000    2221.01941790  RIO_BOSQUE
  17116    2223.03790377      30.00000000    2221.03790377  RIO_BOSQUE
  17134    2224.97969880      30.00000000    2222.97969880  RIO_BOSQUE
  17151    2223.83935261      30.00000000    2221.83935261  RIO_BOSQUE
  17168    2218.73672121      30.00000000    2216.73672121  RIO_BOSQUE
  17184    2215.09874476      30.00000000    2213.09874476  RIO_BOSQUE
  17202    2212.87344536      30.00000000    2210.87344536  RIO_BOSQUE
  17220    2211.10682890      30.00000000    2209.10682890  RIO_BOSQUE
  17238    2210.41074425      30.00000000    2208.41074425  RIO_BOSQUE
  17256    2209.21604982      30.00000000    2207.21604982  RIO_BOSQUE
  17274    2207.14970448      30.00000000    2205.14970448  RIO_BOSQUE
  17292    2201.28452238      30.00000000    2199.28452238  RIO_BOSQUE
  17310    2199.20460877      30.00000000    2197.20460877  RIO_BOSQUE
  17328    2197.44546851      30.00000000    2195.44546851  RIO_BOSQUE
  17346    2195.51779588      30.00000000    2193.51779588  RIO_BOSQUE